[TITLE]
Girona Test for Hydraulically feasible and resilient network designs

[JUNCTIONS]
;ID        Elev                  Demand                Pattern        
2          71.82099914550781     6.143030136986297                    ;
4          69.76699829101562     7.036085379249489                    ;
6          78.39199829101562     10.51087643835616                    ;
7          70.25199890136719     18.389875890410956                   ;
8          69.44200134277344     6.759957534246573                    ;
9          72.13500213623047     23.2194279452055                     ;
10         75.24099731445312     7.430574246575337                    ;
12         71.26300048828125     11.102056438356161                   ;
2062       75.38899993896484     6.422699999999999                    ;
15         72.80799865722656     2.065224144906673                    ;
17         70.49600219726562     15.96683753424657                    ;
2071       72.29100036621094     11.67288493150684                    ;
2073       71.71299743652344     9.82306849315068                     ;
29         74.79900360107422     9.89619452054794                     ;
32         74.90699768066406     0.411502338613613                    ;
33         70.86199951171875     22.257826027397254                   ;
39         76.05799865722656     0.5947397260273973                   ;
45         70.10199737548828     13.15795232876712                    ;
52         73.15499877929688     0                                    ;
53         73.20500183105469     5.578821369863013                    ;
55         76.81800079345703     1.3933849315068494                   ;
56         77.66600036621094     5.4212301369863                      ;
2107       70.21399688720703     41.52434246417394                    ;
2109       68.60199737548828     5.588398085301526                    ;
2111       78.39299774169922     8.929224657534242                    ;
68         69.5510025024414      9.832059452054787                    ;
69         76.93199920654297     2.0099564383561646                   ;
2121       75.16899871826172     0                                    ;
2122       75.20999908447266     9.254574246575338                    ;
76         70.59100341796875     8.568006575342466                    ;
77         71.63700103759766     2.915067123287671                    ;
79         72.98999786376953     3.819661643835615                    ;
87         76.71499633789062     9.970146575342461                    ;
95         73.9800033569336      1.1772912328767124                   ;
2144       67.76599884033203     0.011835616438356166                 ;
96         69.24199676513672     13.90676712328767                    ;
101        77.01899719238281     0.7973013698630137                   ;
2150       71.7490005493164      0                                    ;
103        71.98400115966797     0                                    ;
105        71.8219985961914      10.8338802739726                     ;
106        77.22799682617188     3.696386301369861                    ;
107        72.83899688720703     15.774887671232868                   ;
120        75.59100341796875     10.825199999999993                   ;
123        75.6719970703125      0.3498287671232877                   ;
2175       75.76100158691406     0.5494931506849314                   ;
2177       70.77799987792969     0.06586669737417195                  ;
2178       69.75299835205078     0                                    ;
2179       75.76899719238281     6.963102739726026                    ;
2180       75.81099700927734     3.3817356164383536                   ;
136        74.58699798583984     0.8246913204525705                   ;
2184       72.90399932861328     1.0966520547945204                   ;
139        72.90499877929688     8.451272876712327                    ;
147        71.91699981689453     0                                    ;
2201       73.61399841308594     2.2176986301369865                   ;
2202       73.7959976196289      5.6128449766909565                   ;
153        75.15899658203125     0                                    ;
2205       75.9489974975586      0.9944383561643836                   ;
163        75.8489990234375      0.5697123287671233                   ;
2221       72.72799682617188     2.3009092230959043                   ;
2222       72.69400024414062     2.8104641095890384                   ;
2223       72.86499786376953     6.949859178082185                    ;
181        76.55999755859375     1.4940616438356165                   ;
199        74.59600067138672     14.528406575342458                   ;
210        70.6520004272461      4.069215616438356                    ;
219        72.9469985961914      0                                    ;
222        71.11699676513672     4.819016712328764                    ;
224        78.2490005493164      12.429616438356158                   ;
231        74.15699768066406     9.327965753424657                    ;
235        69.49800109863281     0                                    ;
242        71.96499633789062     5.371216438356164                    ;
244        74.56500244140625     6.722926027397256                    ;
2295       71.46199798583984     3.1159882191780808                   ;
259        73.52899932861328     4.226161643835615                    ;
261        72.09200286865234     7.241568493150679                    ;
263        75.18599700927734     1.7524643835616431                   ;
271        70.31099700927734     11.115578630136984                   ;
274        71.83899688720703     7.792524657534239                    ;
277        68.43399810791016     7.114310958904104                    ;
2326       73.61499786376953     0                                    ;
2329       77.38300323486328     1.9036315068493157                   ;
283        72.08699798583984     8.903461643835614                    ;
2332       71.23300170898438     2.3854405479452057                   ;
2333       69.947998046875       9.082025753424654                    ;
2336       70.0770034790039      9.372096164383562                    ;
2337       71.30899810791016     3.523249315068493                    ;
295        72.88800048828125     4.016506849315067                    ;
302        76.41799926757812     5.080147216771263                    ;
303        75.3740005493164      2.088563835616438                    ;
308        73.47899627685547     4.575458963265189                    ;
310        79.81600189208984     1.9412712328767112                   ;
2364       78.677001953125       7.984269863013694                    ;
2365       78.15899658203125     5.303889041095888                    ;
2366       79.53299713134766     1.5786369863013692                   ;
2367       79.06199645996094     8.312353972602732                    ;
2369       69.49299621582031     2.9623561643835608                   ;
322        75.19300079345703     4.117376712328767                    ;
2370       67.9990005493164      4.221139726027393                    ;
324        73.29900360107422     5.803112054794519                    ;
325        73.88300323486328     0                                    ;
333        72.12699890136719     12.923819178082184                   ;
2388       72.02899932861328     0                                    ;
340        73.91500091552734     7.698636164383556                    ;
346        71.05400085449219     16.500475890410954                   ;
2402       76.69300079345703     6.8445369863013665                   ;
355        76.54499816894531     3.7206904109589027                   ;
371        73.77899932861328     5.994225205479449                    ;
373        74.35199737548828     0.6229109589041095                   ;
381        71.81099700927734     9.797373698630135                    ;
2437       72.03199768066406     0                                    ;
2441       73.03700256347656     0                                    ;
2442       70.13700103759766     7.030023287671228                    ;
404        70.56999969482422     11.701989863013697                   ;
405        70.86100006103516     12.957090410958902                   ;
407        71.62000274658203     5.362493424657533                    ;
2455       74.37799835205078     7.537404657534245                    ;
416        74.37300109863281     12.871785205479442                   ;
418        73.08300018310547     15.775301917808207                   ;
425        71.41100311279297     8.512216438356155                    ;
431        75.64099884033203     0                                    ;
436        69.76399993896484     6.222546575342463                    ;
440        74.38899993896484     2.3249589041095886                   ;
441        72.86000061035156     8.660917808219175                    ;
453        72.26200103759766     0                                    ;
459        73.5719985961914      8.14201232876712                     ;
463        76.5459976196289      0                                    ;
471        73.73200225830078     15.64290986301369                    ;
2521       72.69100189208984     11.83996438356165                    ;
2522       68.06700134277344     1.78410410958904                     ;
480        72.0479965209961      5.7462945205479405                   ;
484        71.9990005493164      6.548432876712324                    ;
490        73.8499984741211      6.248229019056378                    ;
499        77.83899688720703     4.754576712328768                    ;
503        71.0270004272461      9.668375342465753                    ;
510        76.89700317382812     0.7536534246575344                   ;
522        73.91500091552734     0                                    ;
547        75.76799774169922     5.833919178082189                    ;
554        71.98200225830078     1.578427397260274                    ;
562        68.75900268554688     5.825531506849314                    ;
563        68.94400024414062     6.9806531506849305                   ;
575        75.0780029296875      4.6028301369863                      ;
2624       72.22899627685547     0                                    ;
577        73.3280029296875      4.71018904109589                     ;
2626       72.04199981689453     5.079296712328769                    ;
2627       72.125                0.41886986301369866                  ;
2628       71.01499938964844     3.8416438356164386                   ;
2629       71.11799621582031     0                                    ;
580        75.57099914550781     0.6860375342465754                   ;
579        76.1729965209961      3.947461643835615                    ;
2632       73.8949966430664      0                                    ;
584        76.2229995727539      0                                    ;
2638       73.68499755859375     0                                    ;
593        73.02300262451172     0                                    ;
606        72.06700134277344     0                                    ;
612        77.14199829101562     2.460197260273973                    ;
626        75.4739990234375      6.376354520547942                    ;
632        72.2959976196289      0.10202054794520549                  ;
638        73.8949966430664      0                                    ;
641        77.12799835205078     0                                    ;
644        72.3239974975586      9.103977534246575                    ;
652        72.8239974975586      6.584641643835614                    ;
653        71.48999786376953     0.07798821986210737                  ;
679        74.6969985961914      9.40699315068493                     ;
682        76.29299926757812     8.151549863013697                    ;
697        76.60099792480469     5.913234246575337                    ;
709        76.62300109863281     2.642543835616437                    ;
715        77.98600006103516     13.096052054794514                   ;
736        70.23799896240234     4.686521710886145                    ;
737        72.5999984741211      6.674868493150685                    ;
746        71.43099975585938     27.215641643835607                   ;
807        71.73200225830078     5.402264383561643                    ;
808        75.86199951171875     12.250401369863008                   ;
815        74.08300018310547     16.645471232876712                   ;
826        74.99500274658203     0.4519109589041096                   ;
828        74.0979995727539      4.858310136986299                    ;
831        77.91600036621094     7.936910958904111                    ;
839        71.95600128173828     13.566332054794518                   ;
840        72.44000244140625     32.08136301369862                    ;
855        75.69200134277344     0.19417808219178082                  ;
861        68.2770004272461      7.408872328767122                    ;
872        75.18199920654297     2.9572397260273946                   ;
876        73.16100311279297     34.4373082191781                     ;
889        70.57099914550781     5.365815616438356                    ;
893        68.09600067138672     0                                    ;
900        69.8489990234375      4.802732054794519                    ;
906        76.8239974975586      2.9213424657534226                   ;
917        67.50199890136719     3.5433616438356164                   ;
921        67.31600189208984     1.172557808219178                    ;
926        77.9489974975586      5.668410410958901                    ;
941        75.24600219726562     4.586243835616436                    ;
949        71.94000244140625     13.181339178082188                   ;
956        70.03800201416016     24.42788301369862                    ;
958        74.36100006103516     0                                    ;
968        72.14099884033203     0                                    ;
972        72.75900268554688     0.4986862458309927                   ;
974        77.28399658203125     11.28306986301369                    ;
984        71.42900085449219     5.306221643835615                    ;
985        72.8759994506836      8.663757534246571                    ;
989        74.23699951171875     0.0744041095890411                   ;
991        74.43000030517578     0.36426835293616167                  ;
998        70.05799865722656     17.44689945205478                    ;
1003       71.31999969482422     17.9544657534247                     ;
1007       76.51399993896484     0                                    ;
1011       74.54100036621094     7.97724493150685                     ;
1016       70.322998046875       1.8933                               ;
1017       72.2300033569336      5.0017084931506846                   ;
1020       79.55599975585938     8.819013698630137                    ;
1023       72.2699966430664      6.781263287671231                    ;
1043       78.11199951171875     8.018132876712329                    ;
1046       73.97699737548828     15.828974794520535                   ;
1056       75.74500274658203     5.768540547945203                    ;
1078       70.60600280761719     10.128662465753418                   ;
1083       78.59400177001953     13.301338356164377                   ;
1087       73.2509994506836      9.991361917808213                    ;
1093       70.99700164794922     1.5120657534246569                   ;
1095       76.07099914550781     4.0116205479452045                   ;
1098       76.36100006103516     3.2864794520547935                   ;
1102       73.19300079345703     6.654550684931502                    ;
1108       71.04199981689453     0                                    ;
1109       71.4990005493164      6.656625205479449                    ;
1112       71.91699981689453     0                                    ;
1124       67.32599639892578     0                                    ;
1133       72.125                1.1651383561643838                   ;
1135       71.7760009765625      10.466735342465746                   ;
1141       78.0009994506836      0                                    ;
1142       74.01200103759766     7.835987671232875                    ;
1152       74.39700317382812     0                                    ;
1160       77.15799713134766     0.67413698630137                     ;
1174       74.2979965209961      14.91965589041095                    ;
1200       70.18199920654297     11.11850136986301                    ;
1203       77.61100006103516     10.219980821917805                   ;
1206       76.447998046875       1.8408904109589035                   ;
1212       71.93099975585938     0                                    ;
1214       68.45500183105469     0                                    ;
1219       75.71299743652344     0                                    ;
1235       70.01300048828125     3.966362465753424                    ;
1238       68.19499969482422     129.84414326923604                   ;
1241       71.54499816894531     4.0560522350588615                   ;
1245       71.80899810791016     0.936682191780822                    ;
1246       73.23100280761719     11.011362739726023                   ;
1266       72.0199966430664      2.380670958904108                    ;
1271       73.54900360107422     13.179879982569977                   ;
1273       77.06600189208984     9.008203514220154                    ;
1287       73.8759994506836      13.441844383561635                   ;
1288       74.29000091552734     1.8391315068493137                   ;
1293       72.74299621582031     11.89547342465753                    ;
1298       69.98699951171875     9.930976438356156                    ;
1304       67.74299621582031     4.900958630136984                    ;
1307       72.77200317382812     5.288794416246029                    ;
1327       78.00299835205078     4.017147945205477                    ;
1334       71.54100036621094     13.930353698630135                   ;
1349       74.11100006103516     0                                    ;
1358       76.18199920654297     0.49968493150684934                  ;
1362       73.5719985961914      2.2129479452054777                   ;
1386       71.36399841308594     5.7987575342465725                   ;
1392       76.68599700927734     0.4623287671232877                   ;
1399       73.64800262451172     10.829402465753423                   ;
1415       70.89399719238281     8.011614205321612                    ;
1427       78.35399627685547     9.038708219178078                    ;
1431       70.0270004272461      1.1095602739726027                   ;
1441       74.0780029296875      10.182945205479449                   ;
1442       73.82499694824219     3.334890410958903                    ;
1451       71.24099731445312     0.49513068493150686                  ;
1454       74.81999969482422     11.478641095890406                   ;
1455       72.36100006103516     0.4006232876712329                   ;
1457       71.5479965209961      9.518667123287662                    ;
1459       73.50800323486328     13.485978082191785                   ;
1469       75.41000366210938     0                                    ;
1479       73.5999984741211      2.9907616438356146                   ;
1492       69.22799682617188     11.874733972602737                   ;
1510       75.41000366210938     0                                    ;
1518       78.06700134277344     2.6490369863013705                   ;
1525       72.10399627685547     3.2441934246575346                   ;
1532       69.02100372314453     3.4771890410958903                   ;
1537       67.78600311279297     4.633902739726026                    ;
1541       68.1050033569336      11.769102739726025                   ;
1545       76.68499755859375     0.8459424657534248                   ;
1546       70.03900146484375     7.483717808219175                    ;
1548       74.65899658203125     4.486490958904107                    ;
1553       73.55999755859375     14.138773150684923                   ;
1573       77.66600036621094     12.815607945205475                   ;
1577       74.01499938964844     5.736539178082186                    ;
1584       71.24800109863281     4.502910410958902                    ;
1589       75.60399627685547     0                                    ;
1595       74.21900177001953     3.1063298630136966                   ;
1611       72.47599792480469     2.66572602739726                     ;
1644       73.97799682617188     3.5192161643835607                   ;
1649       75.2490005493164      1.032719178082192                    ;
1656       77.74099731445312     5.291539726027395                    ;
1659       77.50299835205078     8.197105479452055                    ;
1661       78.96800231933594     11.085690410958897                   ;
1667       72.35900115966797     6.453259726027396                    ;
1707       71.46700286865234     3.443086185442846                    ;
1729       71.84500122070312     9.367491780821915                    ;
1736       70.62899780273438     17.29033808219178                    ;
1744       78.04000091552734     3.333764383561642                    ;
1747       72.6259994506836      4.2037931506849295                   ;
1750       76.65899658203125     4.890616965719747                    ;
1754       75.71299743652344     1.1657465753424656                   ;
1763       72.64199829101562     0                                    ;
1768       71.96900177001953     0                                    ;
1776       74.55500030517578     0                                    ;
1784       72.33899688720703     4.67363424657534                     ;
1787       71.48799896240234     15.147290958904101                   ;
1792       77.12999725341797     7.412202739726025                    ;
1796       78.43000030517578     9.978221917808215                    ;
1800       74.28500366210938     3.2255531506849286                   ;
1803       73.49700164794922     13.80231205479451                    ;
1804       74.26799774169922     4.859554520547942                    ;
1805       68.09700012207031     0                                    ;
1807       73.71800231933594     10.14004438356164                    ;
1820       75.63999938964844     3.0954874376370256                   ;
1823       74.29399871826172     12.996238356164378                   ;
1825       73.9209976196289      6.662159999999995                    ;
1830       78.86799621582031     0                                    ;
1835       74.32099914550781     7.405693150684927                    ;
1837       76.6510009765625      16.513923287671222                   ;
1842       78.2249984741211      0.8604164383561644                   ;
1849       68.86399841308594     5.228381917808219                    ;
1879       70.88400268554688     7.750844383561644                    ;
1880       76.11900329589844     3.872186301369862                    ;
1885       67.47200012207031     2.8418301369863013                   ;
1909       67.98400115966797     0.8592739726027399                   ;
1921       77.64700317382812     24.443145205479496                   ;
1935       69.35900115966797     2.1032712328767125                   ;
1936       78.88999938964844     0                                    ;
1955       73.84100341796875     8.827061095890409                    ;
1963       75.177001953125       1.0566657534246575                   ;
1973       70.70500183105469     1.9122657534246563                   ;
2009       68.04100036621094     0                                    ;
2014       73.06199645996094     0                                    ;

[RESERVOIRS]
;ID        Head                  Pattern        ;

[TANKS]
;ID        Elevation             InitLevel      MinLevel       MaxLevel       Diameter              MinVol         VolCurve       
2106       111.36399841308594    5              0.2            10             7.1365                0                           ;

[PIPES]
;ID        Node1     Node2     Length                Diameter       Roughness      MinorLoss      Status         
1          2         271       74.233                163            155            0              Open                          ;
2          2         1266      25.873                163            155            0              Open                          ;
3          2         2295      15.773                163            155            0              Open                          ;
4          4         96        108.271               163            155            0              Open                          ;
5          4         736       134.477               163            155            0              Open                          ;
6          6         1427      69.424                163            155            0              Open                          ;
7          6         1083      67.353                163            155            0              Open                          ;
8          7         2109      54.893                163            155            0              Open                          ;
9          7         8         88.135                163            155            0              Open                          ;
10         7         277       78.009                163            155            0              Open                          ;
11         8         861       118.758               163            155            0              Open                          ;
12         8         1885      75.128                163            155            0              Open                          ;
13         8         1935      22.023                163            155            0              Open                          ;
14         9         381       39.602                163            155            0              Open                          ;
15         9         210       55.907                163            155            0              Open                          ;
16         9         283       101.072               163            155            0              Open                          ;
17         10        2122      72.638                163            155            0              Open                          ;
18         10        876       99.479                163            155            0              Open                          ;
19         10        322       124.085               163            155            0              Open                          ;
20         10        2062      45.472                163            155            0              Open                          ;
21         12        2150      119.558               163            155            0              Open                          ;
22         12        2332      28.415                163            155            0              Open                          ;
23         2062      123       41.966                163            155            0              Open                          ;
24         15        2071      94.723                163            155            0              Open                          ;
25         15        985       51.385                163            155            0              Open                          ;
26         17        210       36.463                163            155            0              Open                          ;
27         17        404       106.383               163            155            0              Open                          ;
28         2071      105       80.317                163            155            0              Open                          ;
29         2073      105       56.101                163            155            0              Open                          ;
30         2073      949       42.4                  163            155            0              Open                          ;
31         29        2201      222.884               163            155            0              Open                          ;
32         29        808       69.075                163            155            0              Open                          ;
33         32        153       22.699                163            155            0              Open                          ;
34         32        575       6.499                 163            155            0              Open                          ;
35         33        1200      63.202                163            155            0              Open                          ;
36         33        242       98.187                163            155            0              Open                          ;
37         33        1112      28.33                 163            155            0              Open                          ;
38         39        2205      30.351                163            155            0              Open                          ;
39         39        1358      68.618                163            155            0              Open                          ;
40         45        900       31.513                163            155            0              Open                          ;
41         45        405       79.39                 163            155            0              Open                          ;
42         45        484       139.443               163            155            0              Open                          ;
43         52        584       601.309               163            155            0              Open                          ;